480

Co        19.94350       14.33738       14.33738
Co        14.33738       19.94350       14.33738
Co        14.33738       14.33738       19.94350
Co        25.54962       19.94350       14.33738
Co        19.94350       14.33738       25.54962
Co        14.33738       25.54962       19.94350
Co        19.94350       12.35899       12.35899
Co        12.35899       19.94350       12.35899
Co        12.35899       12.35899       19.94350
Co        27.52802       19.94350       12.35899
Co        19.94350       12.35899       27.52802
Co        12.35899       27.52801       19.94350
C         16.35526       11.93100       16.35526
C         16.35526       16.35526       11.93100
C         11.93100       16.35526       16.35526
C         23.53173       16.35526       11.93100
C         27.95600       16.35526       16.35526
C         16.35526       11.93100       23.53173
C         16.35526       16.35526       27.95600
C         16.35526       27.95600       16.35526
C         11.93100       23.53173       16.35526
C         23.53173       11.93100       16.35526
C         16.35526       23.53173       11.93100
C         11.93100       16.35526       23.53173
C         16.95676       11.34825       15.26396
C         15.26396       16.95676       11.34825
C         11.34825       15.26396       16.95676
C         11.34825       16.95676       15.26396
C         16.95676       15.26396       11.34825
C         15.26396       11.34825       16.95676
C         24.62304       16.95676       11.34825
C         28.53875       15.26396       16.95676
C         28.53875       16.95676       15.26396
C         22.93024       15.26396       11.34825
C         16.95676       11.34825       24.62304
C         15.26396       16.95676       28.53875
C         16.95676       15.26396       28.53875
C         15.26396       11.34825       22.93024
C         16.95676       28.53875       15.26396
C         11.34825       24.62304       16.95676
C         11.34825       22.93024       15.26396
C         15.26396       28.53875       16.95676
C         22.93024       11.34825       15.26396
C         24.62304       11.34825       16.95676
C         15.26396       22.93024       11.34825
C         16.95676       24.62304       11.34825
C         11.34825       15.26396       22.93024
C         11.34825       16.95676       24.62304
C         16.46017       10.11135       14.79130
C         14.79130       16.46017       10.11136
C         10.11135       14.79130       16.46017
C         10.11135       16.46017       14.79130
C         16.46017       14.79130       10.11136
C         14.79130       10.11135       16.46017
C         25.09571       16.46017       10.11136
C         29.77565       14.79130       16.46017
C         29.77565       16.46017       14.79130
C         23.42683       14.79130       10.11136
C         16.46017       10.11135       25.09571
C         14.79130       16.46017       29.77565
C         16.46017       14.79130       29.77565
C         14.79130       10.11135       23.42683
C         16.46017       29.77564       14.79130
C         10.11135       25.09570       16.46017
C         10.11135       23.42683       14.79130
C         14.79130       29.77564       16.46017
C         23.42683       10.11135       14.79130
C         25.09571       10.11135       16.46017
C         14.79130       23.42683       10.11136
C         16.46017       25.09571       10.11136
C         10.11135       14.79130       23.42683
C         10.11135       16.46017       25.09571
C         15.38202        9.51265       15.38202
C         15.38202       15.38202        9.51265
C          9.51265       15.38202       15.38202
C         24.50498       15.38202        9.51265
C         30.37435       15.38202       15.38202
C         15.38202        9.51265       24.50498
C         15.38202       15.38202       30.37435
C         15.38202       30.37435       15.38202
C          9.51265       24.50497       15.38202
C         24.50498        9.51265       15.38202
C         15.38202       24.50498        9.51265
C          9.51265       15.38202       24.50498
C         14.86588        8.16487       14.86589
C         14.86588       14.86588        8.16487
C          8.16487       14.86588       14.86589
C         25.02112       14.86588        8.16487
C         31.72213       14.86588       14.86589
C         14.86588        8.16487       25.02112
C         14.86588       14.86588       31.72213
C         14.86588       31.72213       14.86589
C          8.16487       25.02111       14.86589
C         25.02112        8.16487       14.86589
C         14.86588       25.02112        8.16487
C          8.16487       14.86588       25.02112
C         18.09234       12.04627       14.56793
C         14.56793       18.09234       12.04627
C         12.04627       14.56793       18.09234
C         12.04627       18.09234       14.56793
C         18.09234       14.56793       12.04627
C         14.56793       12.04627       18.09234
C         25.31907       18.09234       12.04627
C         27.84073       14.56793       18.09234
C         27.84073       18.09234       14.56793
C         21.79466       14.56793       12.04627
C         18.09234       12.04627       25.31907
C         14.56793       18.09234       27.84073
C         18.09234       14.56793       27.84073
C         14.56793       12.04627       21.79466
C         18.09234       27.84073       14.56793
C         12.04627       25.31907       18.09234
C         12.04627       21.79465       14.56793
C         14.56793       27.84073       18.09234
C         21.79466       12.04627       14.56793
C         25.31907       12.04627       18.09234
C         14.56793       21.79466       12.04627
C         18.09234       25.31907       12.04627
C         12.04627       14.56793       21.79466
C         12.04627       18.09234       25.31907
H         16.69271       12.73193       16.69271
H         16.69271       16.69271       12.73193
H         12.73193       16.69271       16.69271
H         23.19429       16.69271       12.73193
H         27.15507       16.69271       16.69271
H         16.69271       12.73193       23.19429
H         16.69271       16.69271       27.15507
H         16.69271       27.15507       16.69271
H         12.73193       23.19429       16.69271
H         23.19429       12.73193       16.69271
H         16.69271       23.19429       12.73193
H         12.73193       16.69271       23.19429
H         16.87220        9.70052       14.06814
H         14.06814       16.87220        9.70052
H          9.70052       14.06814       16.87220
H          9.70052       16.87220       14.06814
H         16.87220       14.06814        9.70052
H         14.06814        9.70052       16.87220
H         25.81886       16.87220        9.70052
H         30.18648       14.06814       16.87220
H         30.18648       16.87220       14.06814
H         23.01480       14.06814        9.70052
H         16.87220        9.70052       25.81886
H         14.06814       16.87220       30.18648
H         16.87220       14.06814       30.18648
H         14.06814        9.70052       23.01480
H         16.87220       30.18648       14.06814
H          9.70052       25.81885       16.87220
H          9.70052       23.01480       14.06814
H         14.06814       30.18648       16.87220
H         23.01480        9.70052       14.06814
H         25.81886        9.70052       16.87220
H         14.06814       23.01480        9.70052
H         16.87220       25.81886        9.70052
H          9.70052       14.06814       23.01480
H          9.70052       16.87220       25.81886
H         14.11202       15.38840        7.88965
H          7.88965       15.38840       14.11202
H         14.11202        7.88965       15.38840
H         25.77498       15.38840        7.88965
H         31.99735       14.11202       15.38840
H         15.38840        7.88965       25.77498
H         14.11202       15.38840       31.99735
H         15.38840       31.99735       14.11202
H          7.88965       25.77498       15.38840
H         24.49860        7.88965       14.11202
H         14.11202       24.49860        7.88965
H          7.88965       14.11202       24.49860
H         14.60263       13.94848        8.25262
H          8.25262       13.94848       14.60263
H         14.60263        8.25262       13.94848
H         25.28437       13.94848        8.25262
H         31.63438       14.60263       13.94848
H         13.94848        8.25262       25.28437
H         14.60263       13.94848       31.63438
H         13.94848       31.63438       14.60263
H          8.25262       25.28437       13.94848
H         25.93852        8.25262       14.60263
H         14.60263       25.93852        8.25262
H          8.25262       14.60263       25.93852
H         15.55992       14.93768        7.50673
H          7.50673       14.93768       15.55992
H         15.55992        7.50673       14.93768
H         24.32708       14.93768        7.50673
H         32.38027       15.55992       14.93768
H         14.93768        7.50673       24.32708
H         15.55992       14.93768       32.38027
H         14.93768       32.38027       15.55992
H          7.50673       24.32708       14.93768
H         24.94932        7.50673       15.55992
H         15.55992       24.94932        7.50673
H          7.50673       15.55992       24.94932
O         18.51913       13.08892       15.08606
O         15.08606       18.51913       13.08892
O         13.08892       15.08606       18.51913
O         13.08892       18.51913       15.08606
O         18.51913       15.08606       13.08892
O         15.08606       13.08892       18.51913
O         24.80094       18.51913       13.08892
O         26.79808       15.08606       18.51913
O         26.79808       18.51913       15.08606
O         21.36786       15.08606       13.08892
O         18.51913       13.08892       24.80094
O         15.08606       18.51913       26.79808
O         18.51913       15.08606       26.79808
O         15.08606       13.08892       21.36786
O         18.51913       26.79808       15.08606
O         13.08892       24.80094       18.51913
O         13.08892       21.36786       15.08606
O         15.08606       26.79808       18.51913
O         21.36786       13.08892       15.08606
O         24.80094       13.08892       18.51913
O         15.08606       21.36786       13.08892
O         18.51913       24.80094       13.08892
O         13.08892       15.08606       21.36786
O         13.08892       18.51913       24.80094
O         18.52153       11.51617       13.51890
O         13.51890       18.52153       11.51618
O         11.51617       13.51890       18.52153
O         11.51617       18.52153       13.51890
O         18.52153       13.51890       11.51618
O         13.51890       11.51617       18.52153
O         26.36810       18.52153       11.51618
O         28.37082       13.51890       18.52153
O         28.37082       18.52153       13.51890
O         21.36547       13.51890       11.51618
O         18.52153       11.51617       26.36810
O         13.51890       18.52153       28.37082
O         18.52153       13.51890       28.37082
O         13.51890       11.51617       21.36547
O         18.52153       28.37082       13.51890
O         11.51617       26.36810       18.52153
O         11.51617       21.36547       13.51890
O         13.51890       28.37082       18.52153
O         21.36547       11.51617       13.51890
O         26.36810       11.51617       18.52153
O         13.51890       21.36547       11.51618
O         18.52153       26.36810       11.51618
O         11.51617       13.51890       21.36547
O         11.51617       18.52153       26.36810
Co        19.94350       25.54962       25.54962
Co        25.54962       19.94350       25.54962
Co        25.54962       25.54962       19.94350
Co        14.33738       19.94350       25.54962
Co        19.94350       25.54962       14.33738
Co        25.54962       14.33738       19.94350
Co        19.94350       27.52801       27.52802
Co        27.52801       19.94350       27.52802
Co        27.52801       27.52801       19.94350
Co        12.35899       19.94350       27.52802
Co        19.94350       27.52802       12.35899
Co        27.52802       12.35899       19.94350
C         23.53173       27.95600       23.53173
C         23.53173       23.53173       27.95600
C         27.95600       23.53173       23.53173
C         16.35526       23.53173       27.95600
C         11.93100       23.53173       23.53173
C         23.53173       27.95600       16.35526
C         23.53173       23.53173       11.93100
C         23.53173       11.93100       23.53173
C         27.95600       16.35526       23.53173
C         16.35526       27.95600       23.53173
C         23.53173       16.35526       27.95600
C         27.95600       23.53173       16.35526
C         22.93023       28.53875       24.62304
C         24.62304       22.93024       28.53875
C         28.53875       24.62304       22.93024
C         28.53875       22.93024       24.62304
C         22.93023       24.62304       28.53875
C         24.62304       28.53875       22.93024
C         10.11135       23.42683       25.09571
C         16.46017       25.09570       29.77565
C         23.42683       29.77564       14.79130
C         25.09570       23.42683       10.11136
C         23.42683       25.09571       10.11136
C         15.26396       22.93024       28.53875
C         11.34825       24.62304       22.93024
C         11.34825       22.93024       24.62304
C         16.95676       24.62304       28.53875
C         22.93024       28.53875       15.26396
C         24.62304       22.93024       11.34825
C         22.93024       24.62304       11.34825
C         24.62304       28.53875       16.95676
C         22.93024       11.34825       24.62304
C         28.53875       15.26396       22.93024
C         28.53875       16.95676       24.62304
C         24.62304       11.34825       22.93024
C         16.95676       28.53875       24.62304
C         15.26396       28.53875       22.93024
C         24.62304       16.95676       28.53875
C         22.93024       15.26396       28.53875
C         28.53875       24.62304       16.95676
C         28.53875       22.93024       15.26396
C         21.79465       27.84073       25.31907
C         25.31907       21.79465       27.84073
C         27.84073       25.31907       21.79466
C         27.84073       21.79465       25.31907
C         21.79465       25.31907       27.84073
C         25.31907       27.84073       21.79466
C         23.42683       29.77564       25.09571
C         25.09570       23.42683       29.77565
C         29.77564       25.09570       23.42683
C         29.77564       23.42683       25.09571
C         23.42683       25.09570       29.77565
C         25.09570       29.77564       23.42683
C         14.79130       23.42683       29.77565
C         10.11135       25.09570       23.42683
C         25.09570       29.77564       16.46017
C         23.42683       10.11135       25.09571
C         29.77564       14.79130       23.42683
C         29.77564       16.46017       25.09571
C         25.09570       10.11135       23.42683
C         16.46017       29.77564       25.09571
C         14.79130       29.77564       23.42683
C         25.09570       16.46017       29.77565
C         23.42683       14.79130       29.77565
C         29.77564       25.09570       16.46017
C         29.77564       23.42683       14.79130
C         24.50497       30.37435       24.50498
C         24.50497       24.50497       30.37435
C         30.37435       24.50497       24.50498
C         15.38202       24.50497       30.37435
C          9.51265       24.50497       24.50498
C         24.50497       30.37435       15.38202
C         24.50497       24.50498        9.51265
C         24.50497        9.51265       24.50498
C         30.37435       15.38202       24.50498
C         15.38202       30.37435       24.50498
C         24.50497       15.38202       30.37435
C         30.37435       24.50497       15.38202
C         25.02111       31.72213       25.02112
C         25.02111       25.02111       31.72213
C         31.72213       25.02111       25.02112
C         14.86588       25.02111       31.72213
C          8.16487       25.02111       25.02112
C         25.02111       31.72213       14.86589
C         25.02111       25.02112        8.16487
C         25.02111        8.16487       25.02112
C         31.72213       14.86588       25.02112
C         14.86588       31.72213       25.02112
C         25.02111       14.86588       31.72213
C         31.72213       25.02111       14.86589
H         24.32708       24.94932       32.38027
H         32.38027       24.94932       24.32708
H         24.32708       32.38027       24.94932
C         14.56793       21.79465       27.84073
C         12.04627       25.31907       21.79466
C         12.04627       21.79465       25.31907
C         18.09234       25.31907       27.84073
C         21.79465       27.84073       14.56793
C         25.31907       21.79466       12.04627
C         21.79465       25.31907       12.04627
C         25.31907       27.84073       18.09234
C         21.79465       12.04627       25.31907
C         27.84073       14.56793       21.79466
C         27.84073       18.09234       25.31907
C         25.31907       12.04627       21.79466
C         18.09234       27.84073       25.31907
C         14.56793       27.84073       21.79466
C         25.31907       18.09234       27.84073
C         21.79465       14.56793       27.84073
C         27.84073       25.31907       18.09234
C         27.84073       21.79465       14.56793
O         26.79808       24.80094       21.36786
O         26.79808       21.36786       24.80094
O         21.36786       24.80094       26.79808
O         24.80094       26.79808       21.36786
H         23.19429       27.15507       23.19429
H         23.19429       23.19429       27.15507
H         27.15507       23.19429       23.19429
H         16.69271       23.19429       27.15507
H         12.73193       23.19429       23.19429
H         23.19429       27.15507       16.69271
H         23.19429       23.19429       12.73193
H         23.19429       12.73193       23.19429
H         27.15507       16.69271       23.19429
H         16.69271       27.15507       23.19429
H         23.19429       16.69271       27.15507
H         27.15507       23.19429       16.69271
H         23.01480       30.18648       25.81886
H         25.81885       23.01480       30.18648
H         30.18648       25.81885       23.01480
H         30.18648       23.01480       25.81886
H         23.01480       25.81885       30.18648
H         25.81885       30.18648       23.01480
H         14.06814       23.01480       30.18648
H          9.70052       25.81885       23.01480
H          9.70052       23.01480       25.81886
H         16.87220       25.81885       30.18648
H         23.01480       30.18648       14.06814
H         25.81885       23.01480        9.70052
H         23.01480       25.81886        9.70052
H         25.81885       30.18648       16.87220
H         23.01480        9.70052       25.81886
H         30.18648       14.06814       23.01480
H         30.18648       16.87220       25.81886
H         25.81885        9.70052       23.01480
H         16.87220       30.18648       25.81886
H         14.06814       30.18648       23.01480
H         25.81885       16.87220       30.18648
H         23.01480       14.06814       30.18648
H         30.18648       25.81885       16.87220
H         30.18648       23.01480       14.06814
H         25.77498       24.49859       31.99735
H         31.99735       24.49859       25.77498
H         25.77498       31.99735       24.49860
H         14.11202       24.49859       31.99735
H          7.88965       25.77498       24.49860
H         24.49859       31.99735       14.11202
H         25.77498       24.49860        7.88965
H         24.49859        7.88965       25.77498
H         31.99735       14.11202       24.49860
H         15.38840       31.99735       25.77498
H         25.77498       15.38840       31.99735
H         31.99735       25.77498       15.38840
H         25.28436       25.93852       31.63438
H         31.63438       25.93852       25.28437
H         25.28436       31.63438       25.93852
H         14.60263       25.93852       31.63438
H          8.25262       25.28437       25.93852
H         25.93852       31.63438       14.60263
H         25.28437       25.93852        8.25262
H         25.93852        8.25262       25.28437
H         31.63438       14.60263       25.93852
H         13.94848       31.63438       25.28437
H         25.28437       13.94848       31.63438
H         31.63438       25.28437       13.94848
H         15.55992       24.94932       32.38027
H          7.50673       24.32708       24.94932
H         24.94932       32.38027       15.55992
H         24.32708       24.94932        7.50673
H         24.94932        7.50673       24.32708
H         32.38027       15.55992       24.94932
H         14.93768       32.38027       24.32708
H         24.32708       14.93768       32.38027
H         32.38027       24.32708       14.93768
O         21.36786       26.79808       24.80094
O         24.80094       21.36786       26.79808
O         15.08606       21.36786       26.79808
O         13.08892       24.80094       21.36786
O         13.08892       21.36786       24.80094
O         18.51913       24.80094       26.79808
O         21.36786       26.79808       15.08606
O         24.80094       21.36786       13.08892
O         21.36786       24.80094       13.08892
O         24.80094       26.79808       18.51913
O         21.36786       13.08892       24.80094
O         26.79808       15.08606       21.36786
O         26.79808       18.51913       24.80094
O         24.80094       13.08892       21.36786
O         18.51913       26.79808       24.80094
O         15.08606       26.79808       21.36786
O         24.80094       18.51913       26.79808
O         21.36786       15.08606       26.79808
O         26.79808       24.80094       18.51913
O         26.79808       21.36786       15.08606
O         21.36547       28.37082       26.36810
O         26.36810       21.36547       28.37082
O         28.37082       26.36810       21.36547
O         28.37082       21.36547       26.36810
O         21.36547       26.36810       28.37082
O         26.36810       28.37082       21.36547
O         13.51890       21.36547       28.37082
O         11.51617       26.36810       21.36547
O         11.51617       21.36547       26.36810
O         18.52152       26.36810       28.37082
O         21.36547       28.37082       13.51890
O         26.36810       21.36547       11.51618
O         21.36547       26.36810       11.51618
O         26.36810       28.37082       18.52153
O         21.36547       11.51617       26.36810
O         28.37082       13.51890       21.36547
O         28.37082       18.52153       26.36810
O         26.36810       11.51617       21.36547
O         18.52152       28.37082       26.36810
O         13.51890       28.37082       21.36547
O         26.36810       18.52153       28.37082
O         21.36547       13.51890       28.37082
O         28.37082       26.36810       18.52153
O         28.37082       21.36547       13.51890
