696

Mo        10.16992       10.47810       15.30904
Mo         9.05218        9.37202       13.90045
Mo        18.66409       10.73038       14.86453
Mo        19.68643        9.68290       13.34398
Mo        14.84055        6.35332       21.22075
Mo        14.91404        4.24110       21.22414
Mo         9.88532       18.99541       15.30479
Mo         8.70472       20.02564       13.89282
Mo        18.38086       19.23996       14.83823
Mo        19.34503       20.33980       13.31726
Mo        23.05894       15.12975       20.74104
Mo        25.16505       15.21751       20.63119
O         11.93704       10.25974       14.20160
O         10.76842        9.10367       12.69674
O         16.79850       10.40314       13.95050
O         17.87889        9.29169       12.33791
C         11.85856        9.59127       13.12215
C         14.33449        9.68944       12.92153
H         14.36467       10.11219       13.77194
C         13.11976        9.33542       12.35318
C         13.05929        8.74341       11.09432
H         12.21823        8.50511       10.72023
C         14.23141        8.49946       10.38643
C         15.43116        8.80588       10.98192
H         16.23831        8.59466       10.52767
C         15.50055        9.41872       12.23272
C         16.79459        9.71919       12.85112
C         14.18103        7.91637        8.97869
C         15.49248        7.95802        8.20294
H         15.31491        7.80481        7.25243
H         16.09262        7.25979        8.54055
H         15.91313        8.83504        8.32127
C         13.73680        6.46161        9.14029
H         13.45136        6.10938        8.27334
H         12.99135        6.41758        9.77481
H         14.48661        5.92939        9.48046
C         13.14288        8.64523        8.12235
H         13.00660        8.15317        7.28424
H         13.46344        9.54932        7.91918
H         12.29530        8.70057        8.60926
O         10.67880        8.72199       16.36473
O          9.48720        7.56056       14.88913
O         13.30675        6.37028       19.78163
O         13.37292        4.14680       19.77739
C         10.23225        7.61887       15.91386
C         11.51419        6.40509       17.64013
H         11.90442        7.23183       17.90267
C         10.60124        6.38129       16.63957
C         10.00196        5.17940       16.27014
H          9.35399        5.17316       15.57540
C         10.34511        3.98347       16.90636
C         11.30544        4.02214       17.89037
H         11.57719        3.21325       18.30603
C         11.88678        5.22998       18.28652
C         12.91750        5.24783       19.32864
C          9.65971        2.60309       16.59674
C          9.28307        1.83257       17.87086
H          8.47452        1.30511       17.70799
H          9.12056        2.46594       18.60039
H         10.01977        1.23282       18.11814
C         10.64030        1.69573       15.84176
H         10.67421        0.81901       16.27693
H         11.53394        2.10092       15.85491
H         10.34295        1.59131       14.91501
C          8.34613        2.81134       15.84176
H          7.83417        1.97448       15.83921
H          8.53741        3.07789       14.91797
H          7.82195        3.51224       16.28202
O          9.72265       12.28599       14.33775
O          8.58355       11.13200       12.83416
O          9.56752       17.15600       14.31569
O          8.35511       18.24811       12.82228
C          8.99314       12.24196       13.29138
C          8.90202       14.70820       13.24176
H          9.24221       14.72427       14.12907
C          8.68878       13.50929       12.60554
C          8.22103       13.48549       11.32463
H          8.09670       12.64507       10.89794
C          7.89931       14.70523       10.59510
C          8.13572       15.89818       11.28646
H          7.96535       16.72582       10.85723
C          8.61510       15.89818       12.58858
C          8.86908       17.16552       13.29690
C          7.44509       14.51185        9.10636
C          6.17509       13.65209        9.15302
H          5.73173       13.67619        8.28055
H          5.56710       14.00611        9.83801
H          6.41212       12.72807        9.37527
C          8.49634       13.63722        8.37683
H          8.17961       13.43373        7.47171
H          8.62748       12.80125        8.87181
H          9.34594       14.12213        8.32424
C          7.57731       15.89818        8.47015
H          7.53104       15.81310        7.49334
H          8.43591       16.29415        8.72251
H          6.84662       16.47087        8.78189
O         18.89865       12.54630       13.84744
O         19.95257       11.43991       12.22212
O         18.74969       17.42642       13.82962
O         19.75129       18.58368       12.21067
C         19.52677       12.52458       12.72685
C         19.44174       14.99380       12.65475
H         19.06575       14.98190       13.52763
C         19.74815       13.82166       12.01938
C         20.25175       13.81869       10.74610
H         20.42808       12.99462       10.30881
C         20.49924       15.00867       10.09461
C         20.17795       16.20163       10.74356
H         20.30865       17.02689       10.29057
C         19.68326       16.19866       12.01089
C         19.37915       17.48086       12.72558
C         21.16641       15.00272        8.67798
C         20.70631       16.24328        7.90179
H         21.16816       16.27482        7.03527
H         20.92234       17.04979        8.41373
H         19.73967       16.19806        7.75292
C         20.87186       13.73241        7.87634
H         21.47525       13.68749        7.10440
H         19.94349       13.75086        7.56333
H         21.01008       12.94673        8.44427
C         22.70419       15.09494        8.74160
H         23.08125       14.81114        7.88186
H         23.03698       14.51156        9.45331
H         22.96753       16.02016        8.92398
O         20.45800       11.13468       15.87611
O         21.54181       10.02532       14.27794
O         22.98221       13.65149       19.23448
O         25.20666       13.72587       19.13142
C         21.55407       10.71283       15.36757
C         22.85681       11.92661       17.07856
H         22.04931       12.31217       17.39540
C         22.82700       11.02520       16.03983
C         23.98190       10.38558       15.62969
H         23.92534        9.74091       14.93409
C         25.22616       10.65036       16.19804
C         25.22352       11.62912       17.23295
H         26.04621       11.85640       17.65031
C         24.05372       12.26873       17.65964
C         24.09803       13.26237       18.73018
C         26.39188        9.58829       15.90793
C         26.83699       10.18924       14.56509
H         27.28869        9.50143       14.03491
H         27.45390       10.93298       14.73093
H         26.05266       10.51678       14.07944
C         27.38021        9.48120       17.07602
H         27.38864        8.56045       17.41406
H         27.10678       10.08928       17.79409
H         28.27916        9.72276       16.76809
C         26.01961        8.12164       15.57879
H         26.67914        7.51921       15.98215
H         26.01524        7.99639       14.60665
H         25.13087        7.92142       15.93804
O         20.17214       18.97191       15.88248
O         21.20905       20.12144       14.27837
O         22.85222       16.62080       19.27987
O         25.07890       16.72165       19.15686
C         21.22922       19.48301       15.37563
C         22.58783       18.37335       17.11377
H         21.81340       17.90212       17.39582
C         22.51366       19.28964       16.08437
C         23.61483       20.06610       15.74421
H         23.53578       20.71643       15.05497
C         24.84064       19.90545       16.40163
C         24.90063       18.89992       17.36019
H         25.73365       18.72321       17.77882
C         23.80807       18.15023       17.73005
C         23.92328       17.09412       18.79592
C         26.09705       20.56590       15.85491
C         26.62124       19.83703       14.59054
H         27.02663       20.49033       13.98359
H         25.87647       19.38870       14.14094
H         27.29345       19.17361       14.85351
C         27.26706       20.55400       16.83426
H         28.05388       20.95234       16.41054
H         27.46627       19.63027       17.09510
H         27.02838       21.07224       17.63334
C         25.79088       21.99388       15.38793
H         26.62810       22.44845       15.15507
H         25.34147       22.48475       16.10600
H         25.20835       21.96234       14.59944
O          8.48949       10.76370       16.53778
O          7.29252        9.56241       15.07024
O          6.17386       13.15021       20.17481
O          3.94188       13.04312       20.29527
C          7.39596       10.24279       16.13103
C          6.21127       11.39707       18.00319
H          7.01806       11.84034       18.23647
C          6.17849       10.48078       16.96659
C          5.00599        9.81439       16.64763
H          4.99555        9.21732       15.90920
C          3.83057       10.00776       17.39837
C          3.88712       10.96273       18.41631
H          3.10752       11.14331       18.93037
C          5.04822       11.64994       18.68564
C          5.05970       12.65250       19.79902
C          2.54126        9.29675       16.92248
C          1.91969        9.94827       15.67634
H          0.94183        9.91405       15.74251
H          2.20858        9.46424       14.87386
H          2.20984       10.88240       15.61569
C          1.50738        9.32947       18.05155
H          0.66615        8.93797       17.73429
H          1.35103       10.25974       18.32173
H          1.83944        8.81808       18.81585
C          2.79857        7.83604       16.51191
H          1.94368        7.39991       16.31129
H          3.24488        7.36421       17.24228
H          3.36734        7.81849       15.71282
O         18.39276        8.99033       16.00718
O         19.49124        7.87115       14.42003
O         16.25709        6.46310       19.66202
O         16.35600        4.23218       19.66245
C         18.87174        7.91339       15.53383
C         17.85528        6.61036       17.41491
H         17.40651        7.39932       17.69823
C         18.71476        6.64308       16.30917
C         19.41171        5.51855       15.93507
H         19.99189        5.55812       15.18391
C         19.27886        4.31072       16.64763
C         18.39919        4.31072       17.69527
H         18.27912        3.50420       18.18473
C         17.67264        5.43228       18.07954
C         16.70971        5.36980       19.19885
C         20.04473        3.06718       16.15138
C         19.52176        2.65664       14.76443
H         20.09853        1.95871       14.39161
H         19.52636        3.43697       14.17106
H         18.60694        2.31571       14.84799
C         21.51090        3.44500       15.94779
H         22.03811        2.63373       15.78408
H         21.84646        3.89273       16.75324
H         21.59163        4.04743       15.18094
C         19.89555        1.85042       17.05481
H         20.36565        1.08764       16.65484
H         18.94488        1.63087       17.15321
H         20.27892        2.04737       17.93279
O         16.36900        6.46042       22.66453
O         16.44434        4.23247       22.65944
O         18.90725        8.98884       26.03901
O         20.16969        7.88929       27.51716
C         16.85170        5.37010       23.10055
C         18.19318        6.61928       24.76744
H         17.75037        7.41985       24.50743
C         17.89720        5.41145       24.13970
C         18.56726        4.26907       24.51889
H         18.35831        3.45422       24.07863
C         19.50994        4.26014       25.49527
C         19.80285        5.46797       26.13700
H         20.46004        5.49326       26.82368
C         19.13270        6.63416       25.76799
C         19.41331        7.89852       26.47037
C         20.09389        2.91248       25.93298
C         20.45241        2.06165       24.70805
H         20.82643        1.20605       25.00368
H         21.11621        2.53794       24.16473
H         19.64781        1.90159       24.17406
C         19.14512        2.02000       26.76769
H         19.50590        1.10966       26.80629
H         18.26014        2.00423       26.34907
H         19.07238        2.38205       27.67494
C         21.35370        3.11776       26.76345
H         21.74965        2.24728       26.97680
H         21.12391        3.58423       27.59520
H         21.99625        3.65444       26.25533
O         11.64622       19.33664       14.20032
O         10.41031       20.40733       12.69292
O         16.50846       19.45445       13.92718
O         17.51112       20.59713       12.28701
C         11.53961       19.98578       13.13021
C         13.99512       20.02743       12.89990
H         14.05058       19.63503       13.76388
C         12.76268       20.27733       12.33112
C         12.67570       20.83959       11.06378
H         11.82047       21.02047       10.68969
C         13.81549       21.14304       10.33892
C         15.06539       20.91992       10.93909
H         15.85843       21.16416       10.47762
C         15.15240       20.34873       12.20133
C         16.46407       20.12560       12.83034
C         13.70589       21.69936        8.95070
C         12.79166       20.81579        8.10538
H         12.62043       21.25192        7.24437
H         11.94274       20.67954        8.57618
H         13.22370       19.95008        7.95311
C         13.15588       23.12734        9.05122
H         13.00300       23.48106        8.14907
H         13.80277       23.69436        9.51863
H         12.31060       23.11663        9.54535
C         15.04650       21.79456        8.21990
H         14.90741       22.18100        7.32793
H         15.43493       20.89939        8.12829
H         15.65939       22.36605        8.72845
O          8.21066       18.57714       16.51445
O          6.95769       19.66805       15.03419
O          6.05878       16.08947       20.16633
O          3.83799       16.01867       20.28975
C          7.08928       18.98619       16.08394
C          5.97246       17.79621       17.96120
H          6.82180       17.46004       18.22587
C          5.86314       18.64110       16.89745
C          4.63505       19.16171       16.51572
H          4.58043       19.74094       15.76414
C          3.49245       18.84340       17.22447
C          3.59877       17.95388       18.29458
H          2.81678       17.70607       18.77598
C          4.80926       17.43326       18.66062
C          4.90102       16.46045       19.77781
C          2.08424       19.34616       16.84571
C          2.09483       20.17023       15.56182
H          1.18548       20.22318       15.19876
H          2.68340       19.74332       14.90398
H          2.42187       21.07372       15.75438
C          1.51058       20.14643       18.02186
H          0.67788       20.58434       17.74319
H          2.15813       20.82531       18.30222
H          1.32519       19.54102       18.76920
C          1.15285       18.14428       16.64763
H          0.25179       18.37424       16.96065
H          1.49084       17.38091       17.15830
H          1.11701       17.91253       15.69585
O         17.99781       20.98834       15.95840
O         19.02345       22.13816       14.35980
O         15.74303       23.35968       19.62682
O         15.70168       25.59715       19.62894
C         18.41156       22.06528       15.48166
C         17.32432       23.31476       17.35256
H         16.89642       22.50854       17.61213
C         18.18949       23.32963       16.27269
C         18.87124       24.48392       15.95204
H         19.45643       24.47708       15.20257
C         18.72644       25.65308       16.68156
C         17.78186       25.64713       17.72496
H         17.61068       26.44114       18.21696
C         17.09423       24.47202       18.04264
C         16.12532       24.49582       19.17044
C         19.54474       26.92041       16.27226
C         21.00822       26.48904       16.03687
H         21.53640       27.26431       15.75566
H         21.03793       25.80302       15.33533
H         21.37931       26.12253       16.86607
C         19.03662       27.31905       14.87471
H         19.68649       27.91315       14.44590
H         18.17642       27.78226       14.95912
H         18.91920       26.51373       14.32629
C         19.60279       27.87537       17.46623
H         19.93093       28.75061       17.16805
H         20.20689       27.51451       18.14655
H         18.70472       27.97771       17.84669
Mo        19.00592       19.27149       27.10531
Mo        20.12366       20.37758       28.51390
Mo        10.51176       19.01921       27.54982
Mo         9.48941       20.06670       29.07037
Mo        14.33529       23.39627       21.19360
Mo        14.26180       25.50850       21.19021
Mo        19.29052       10.75418       27.10955
Mo        20.47112        9.72395       28.52153
Mo        10.79499       10.50964       27.57611
Mo         9.83081        9.40980       29.09709
Mo         6.11690       14.61984       21.67331
Mo         4.01079       14.53208       21.78316
O         17.23880       19.48985       28.21275
O         18.40742       20.64592       29.71761
O         12.37734       19.34646       28.46385
O         11.29696       20.45790       30.07644
C         17.31729       20.15833       29.29220
C         14.84135       20.06015       29.49282
H         14.81117       19.63741       28.64241
C         16.05608       20.41417       30.06117
C         16.11655       21.00619       31.32003
H         16.95761       21.24449       31.69412
C         14.94443       21.25014       32.02792
C         13.74469       20.94372       31.43242
H         12.93753       21.15494       31.88668
C         13.67529       20.33087       30.18163
C         12.38125       20.03041       29.56322
C         14.99481       21.83323       33.43565
C         13.68336       21.79158       34.21141
H         13.86123       21.94479       35.16192
H         13.08323       22.48980       33.87379
H         13.26300       20.91456       34.09308
C         15.43904       23.28798       33.27406
H         15.72448       23.64022       34.14101
H         16.18449       23.33201       32.63954
H         14.68923       23.82021       32.93390
C         16.03297       21.10436       34.29200
H         16.16925       21.59642       35.13011
H         15.71241       20.20027       34.49517
H         16.88054       21.04903       33.80508
O         18.49705       21.02761       26.04962
O         19.68864       22.18903       27.52522
O         15.86909       23.37932       22.63272
O         15.80292       25.60280       22.63696
C         18.94359       22.13073       26.50049
C         17.66165       23.34451       24.77422
H         17.27142       22.51777       24.51168
C         18.57461       23.36831       25.77477
C         19.17389       24.57019       26.14421
H         19.82186       24.57644       26.83895
C         18.83073       25.76613       25.50799
C         17.87040       25.72745       24.52398
H         17.59865       26.53634       24.10832
C         17.28906       24.51962       24.12783
C         16.25835       24.50177       23.08571
C         19.51613       27.14651       25.81761
C         19.89277       27.91702       24.54349
H         20.70132       28.44448       24.70636
H         20.05528       27.28365       23.81396
H         19.15637       28.51677       24.29621
C         18.53554       28.05387       26.57259
H         18.50163       28.93059       26.13742
H         17.64190       27.64868       26.55944
H         18.83289       28.15829       27.49934
C         20.82971       26.93826       26.57259
H         21.34167       27.77512       26.57513
H         20.63843       26.67170       27.49637
H         21.35389       26.23736       26.13233
O         19.45320       17.46361       28.07660
O         20.59229       18.61760       29.58019
O         19.60832       12.59360       28.09866
O         20.82073       11.50149       29.59207
C         20.18271       17.50764       29.12296
C         20.27383       15.04140       29.17259
H         19.93363       15.02533       28.28528
C         20.48707       16.24030       29.80880
C         20.95481       16.26410       31.08972
H         21.07914       17.10453       31.51641
C         21.27653       15.04437       31.81924
C         21.04012       13.85141       31.12789
H         21.21049       13.02378       31.55712
C         20.56074       13.85141       29.82577
C         20.30676       12.58408       29.11745
C         21.73075       15.23774       33.30799
C         23.00075       16.09751       33.26133
H         23.44412       16.07341       34.13380
H         23.60874       15.74349       32.57677
H         22.76372       17.02153       33.03908
C         20.67951       16.11238       34.03751
H         20.99623       16.31587       34.94264
H         20.54836       16.94835       33.54254
H         19.82990       15.62746       34.09011
C         21.59854       13.85141       33.94420
H         21.64509       13.93649       34.92101
H         20.73993       13.45544       33.69226
H         22.32922       13.27873       33.63246
O         10.27719       17.20330       28.56691
O          9.22328       18.30969       30.19223
O         10.42615       12.32317       28.58473
O          9.42455       11.16592       30.20368
C          9.64907       17.22502       29.68750
C          9.73410       14.75580       29.75960
H         10.11009       14.76770       28.88672
C          9.42769       15.92793       30.39497
C          8.92410       15.93091       31.66825
H          8.74776       16.75497       32.10554
C          8.67661       14.74092       32.31974
C          8.99789       13.54796       31.67079
H          8.86719       12.72301       32.12378
C          9.49258       13.55094       30.40345
C          9.79669       12.26873       29.68877
C          8.00943       14.74687       33.73637
C          8.46954       13.50632       34.51256
H          8.00768       13.47478       35.37908
H          8.25350       12.69980       34.00061
H          9.43617       13.55153       34.66143
C          8.30398       16.01718       34.53801
H          7.70059       16.06211       35.30994
H          9.23235       15.99874       34.85102
H          8.16576       16.80287       33.97008
C          6.47165       14.65465       33.67275
H          6.09460       14.93846       34.53249
H          6.13887       15.23804       32.96104
H          6.20861       13.72944       33.49037
O          8.71784       18.61492       26.53823
O          7.63403       19.72428       28.13641
O          6.19363       16.09810       23.17986
O          3.96918       16.02373       23.28293
C          7.62177       19.03677       27.04678
C          6.31904       17.82298       25.33579
H          7.12653       17.43743       25.01895
C          6.34884       18.72440       26.37451
C          5.19394       19.36401       26.78466
H          5.25050       20.00869       27.48026
C          3.94969       19.09924       26.21631
C          3.95233       18.12048       25.18140
H          3.12963       17.89319       24.76404
C          5.12212       17.48086       24.75471
C          5.07782       16.48723       23.68417
C          2.78397       20.16130       26.50642
C          2.33885       19.56036       27.84926
H          1.88715       20.24817       28.37944
H          1.72194       18.81662       27.68342
H          3.12318       19.23282       28.33491
C          1.79563       20.26840       25.33833
H          1.78720       21.18915       25.00029
H          2.06906       19.66032       24.62026
H          0.89668       20.02683       25.64626
C          3.15623       21.62796       26.83556
H          2.49670       22.23039       26.43220
H          3.16060       21.75320       27.80812
H          4.04498       21.82817       26.47631
O          9.00371       10.77768       26.53187
O          7.96680        9.62816       28.13598
O          6.32363       13.12879       23.13448
O          4.09694       13.02794       23.25748
C          7.94662       10.26658       27.03872
C          6.58801       11.37625       25.30058
H          7.36245       11.84748       25.01853
C          6.66219       10.45996       26.32998
C          5.56101        9.68349       26.67014
H          5.64006        9.03317       27.35938
C          4.33521        9.84414       26.01272
C          4.27521       10.84968       25.05416
H          3.44219       11.02639       24.63552
C          5.36777       11.59937       24.68430
C          5.25256       12.65548       23.61843
C          3.07879        9.18370       26.55944
C          2.55460        9.91257       27.82381
H          2.14922        9.25926       28.43076
H          3.29937       10.36119       28.27341
H          1.88240       10.57598       27.56084
C          1.90879        9.19560       25.58009
H          1.12226        8.79725       26.00381
H          1.70957       10.11932       25.31967
H          2.14746        8.67736       24.78101
C          3.38496        7.75572       27.02642
H          2.54774        7.30114       27.25928
H          3.83437        7.26485       26.30835
H          3.96778        7.78725       27.81533
O         20.68635       18.98589       25.87657
O         21.88333       20.18718       27.34410
O         23.00199       16.59938       22.23954
O         25.23396       16.70648       22.11908
C         21.77989       19.50681       26.28332
C         22.96457       18.35253       24.41115
H         22.15778       17.90926       24.17788
C         22.99735       19.26881       25.44776
C         24.16985       19.93520       25.76672
H         24.18029       20.53228       26.50515
C         25.34528       19.74183       25.01598
C         25.28872       18.78687       23.99804
H         26.06832       18.60629       23.48398
C         24.12762       18.09965       23.72871
C         24.11615       17.09709       22.61533
C         26.63459       20.45285       25.49187
C         27.25616       19.80133       26.73800
H         28.23401       19.83554       26.67226
H         26.96726       20.28536       27.54049
H         26.96600       18.86749       26.79908
C         27.66846       20.42012       24.36280
H         28.50999       20.81163       24.68006
H         27.82482       19.48985       24.09262
H         27.33670       20.93152       23.59849
C         26.37727       21.91355       25.90244
H         27.23217       22.34968       26.10306
H         25.93097       22.38568       25.17207
H         25.80850       21.93110       26.70153
O         10.78308       20.75927       26.40718
O          9.68461       21.87845       27.99432
O         12.91876       23.28650       22.75233
O         12.81985       25.51742       22.75190
C         10.30410       21.83620       26.88052
C         11.32056       23.13924       24.99944
H         11.76934       22.35028       24.71611
C         10.46109       23.10651       26.10518
C          9.76414       24.23105       26.47928
H          9.18395       24.19148       27.23043
C          9.89698       25.43888       25.76672
C         10.77665       25.43888       24.71908
H         10.89672       26.24539       24.22962
C         11.50321       24.31732       24.33481
C         12.46614       24.37980       23.21549
C          9.13111       26.68241       26.26296
C          9.65408       27.09296       27.64991
H          9.07732       27.79088       28.02274
H          9.64948       26.31263       28.24329
H         10.56890       27.43389       27.56636
C          7.66494       26.30459       26.46655
H          7.13773       27.11587       26.63027
H          7.32939       25.85686       25.66110
H          7.58421       25.70217       27.23341
C          9.28030       27.89917       25.35954
H          8.81019       28.66195       25.75951
H         10.23096       28.11872       25.26114
H          8.89692       27.70223       24.48156
O         12.80684       23.28918       19.74982
O         12.73151       25.51712       19.75491
O         10.26859       20.76076       16.37533
O          9.00616       21.86030       14.89719
C         12.32415       24.37950       19.31380
C         10.98266       23.13031       17.64691
H         11.42547       22.32975       17.90691
C         11.27865       24.33814       18.27465
C         10.60858       25.48053       17.89546
H         10.81754       26.29537       18.33572
C          9.66591       25.48946       16.91908
C          9.37299       24.28162       16.27735
H          8.71580       24.25633       15.59067
C         10.04314       23.11544       16.64636
C          9.76253       21.85108       15.94398
C          9.08195       26.83711       16.48137
C          8.72343       27.68795       17.70629
H          8.34942       28.54355       17.41067
H          8.05963       27.21166       18.24962
H          9.52804       27.84800       18.24029
C         10.03072       27.72960       15.64665
H          9.66994       28.63964       15.60806
H         10.91600       27.74537       16.06528
H         10.10347       27.36755       14.73941
C          7.82214       26.63184       15.65089
H          7.42619       27.50231       15.43755
H          8.05193       26.16537       14.81915
H          7.17960       26.09516       16.15902
O         17.52962       10.41295       28.21402
O         18.76554        9.34226       29.72143
O         12.66739       10.29515       28.48717
O         11.66473        9.15246       30.12733
C         17.63623        9.76382       29.28414
C         15.18072        9.72217       29.51445
H         15.12526       10.11456       28.65047
C         16.41317        9.47227       30.08323
C         16.50014        8.91000       31.35056
H         17.35537        8.72912       31.72466
C         15.36036        8.60656       32.07543
C         14.11046        8.82968       31.47526
H         13.31771        8.58543       31.93673
C         14.02344        9.40087       30.21301
C         12.71178        9.62399       29.58401
C         15.46995        8.05024       33.46365
C         16.38418        8.93380       34.30897
H         16.55541        8.49767       35.16998
H         17.23281        9.07006       33.83817
H         15.95214        9.79952       34.46124
C         16.01997        6.62226       33.36312
H         16.17284        6.26854       34.26528
H         15.37307        6.05523       32.89572
H         16.86524        6.63297       32.86900
C         14.12934        7.95504       34.19445
H         14.26843        7.56889       35.08642
H         13.74091        8.85021       34.28606
H         13.51645        7.38355       33.68590
O         20.96518       11.17246       25.89990
O         22.21815       10.08154       27.38016
O         23.11707       13.66012       22.24802
O         25.33785       13.73093       22.12460
C         22.08657       10.76340       26.33040
C         23.20338       11.95339       24.45314
H         22.35404       12.28956       24.18848
C         23.31271       11.10850       25.51690
C         24.54079       10.58788       25.89863
H         24.59541       10.00866       26.65021
C         25.68339       10.90620       25.18988
C         25.57707       11.79571       24.11977
H         26.35906       12.04353       23.63836
C         24.36658       12.31633       23.75373
C         24.27482       13.28914       22.63654
C         27.09161       10.40343       25.56864
C         27.08101        9.57937       26.85252
H         27.99036        9.52641       27.21601
H         26.49244       10.00628       27.51037
H         26.75397        8.67587       26.65996
C         27.66526        9.60317       24.39249
H         28.49796        9.16525       24.67115
H         27.01801        8.92428       24.11213
H         27.85065       10.20857       23.64515
C         28.02299       11.60532       25.76672
H         28.92405       11.37535       25.45370
H         27.68500       12.36869       25.25605
H         28.05883       11.83707       26.71849
O         11.17804        8.76126       26.45595
O         10.15239        7.61143       28.05455
O         13.43281        6.38991       22.78753
O         13.47416        4.15245       22.78541
C         10.76428        7.68432       26.93269
C         11.85152        6.43484       25.06179
H         12.27943        7.24105       24.80222
C         10.98635        6.41996       26.14166
C         10.30460        5.26568       26.46231
H          9.71941        5.27252       27.21177
C         10.44940        4.09652       25.73279
C         11.39399        4.10247       24.68939
H         11.56517        3.30845       24.19739
C         12.08161        5.27758       24.37171
C         13.05052        5.25378       23.24391
C          9.63110        2.82919       26.14208
C          8.16762        3.26055       26.37749
H          7.63944        2.48528       26.65869
H          8.13791        3.94658       27.07902
H          7.79654        3.62707       25.54828
C         10.13922        2.43054       27.53964
H          9.48936        1.83644       27.96844
H         10.99942        1.96734       27.45523
H         10.25664        3.23586       28.08805
C          9.57305        1.87422       24.94812
H          9.24521        0.99899       25.24629
H          8.96895        2.23509       24.26779
H         10.47112        1.77188       24.56766
